This program allows you to find givem start and end markers of sequence.

Usage:

python markers_finder.py [start_marker] [end_marker]

Input file: sekwencja.txt
Output file: sekwencja.html
